
**** 10/29/24 23:12:56 ******* PSpice Lite (March 2016) ******* ID# 10813 ****

 ** Profile: "SCHEMATIC1-sim1"  [ C:\Users\Justin\Documents\School\2024-2025\Fall Quarter\EEC 100\OrCAD Lab Simulations\Lab 5-PSpiceF


 ****     CIRCUIT DESCRIPTION


******************************************************************************




** Creating circuit file "sim1.cir" 
** WARNING: THIS AUTOMATICALLY GENERATED FILE MAY BE OVERWRITTEN BY SUBSEQUENT SIMULATIONS

*Libraries: 
* Profile Libraries :
* Local Libraries :
* From [PSPICE NETLIST] section of C:\Users\Justin\AppData\Roaming\SPB_Data\cdssetup\OrCAD_PSpice\17.2.0\PSpice.ini file:
.lib "nomd.lib" 

*Analysis directives: 
.AC DEC 100 1 10MHz
--------------$
ERROR(ORPSIM-16103): Invalid value
.OPTIONS ADVCONV
.PROBE64 V(alias(*)) I(alias(*)) W(alias(*)) D(alias(*)) NOISE(alias(*)) 
.INC "..\SCHEMATIC1.net" 



**** INCLUDING SCHEMATIC1.net ****
* source LAB 5
V_V1         VIN 0 DC 0Vdc AC 1Vac 0
V_V2         VIN2 0 DC 0Vdc AC 1Vac 0
V_V3         VIN3 0 DC 0Vdc AC 1Vac 0
R_R1         VIN VOUT  1k TC=0,0 
R_R2         0 VOUT2  1k TC=0,0 
R_R3         0 VOUT3  1k TC=0,0 
C_C1         0 VOUT  100n  TC=0,0 
C_C2         VOUT2 VIN2  100n  TC=0,0 
C_C3         N00309 VIN3  100n  TC=0,0 
L_L1         N00309 VOUT3  1mH  

**** RESUMING sim1.cir ****
.END
