
**** 10/29/24 23:13:16 ******* PSpice Lite (March 2016) ******* ID# 10813 ****

 ** Profile: "SCHEMATIC1-sim1"  [ C:\Users\Justin\Documents\School\2024-2025\Fall Quarter\EEC 100\OrCAD Lab Simulations\Lab 5-PSpiceF


 ****     CIRCUIT DESCRIPTION


******************************************************************************




** Creating circuit file "sim1.cir" 
** WARNING: THIS AUTOMATICALLY GENERATED FILE MAY BE OVERWRITTEN BY SUBSEQUENT SIMULATIONS

*Libraries: 
* Profile Libraries :
* Local Libraries :
* From [PSPICE NETLIST] section of C:\Users\Justin\AppData\Roaming\SPB_Data\cdssetup\OrCAD_PSpice\17.2.0\PSpice.ini file:
.lib "nomd.lib" 

*Analysis directives: 
.AC DEC 100 1 10000000
.OPTIONS ADVCONV
.PROBE64 V(alias(*)) I(alias(*)) W(alias(*)) D(alias(*)) NOISE(alias(*)) 
.INC "..\SCHEMATIC1.net" 



**** INCLUDING SCHEMATIC1.net ****
* source LAB 5
V_V1         VIN 0 DC 0Vdc AC 1Vac 0
V_V2         VIN2 0 DC 0Vdc AC 1Vac 0
V_V3         VIN3 0 DC 0Vdc AC 1Vac 0
R_R1         VIN VOUT  1k TC=0,0 
R_R2         0 VOUT2  1k TC=0,0 
R_R3         0 VOUT3  1k TC=0,0 
C_C1         0 VOUT  100n  TC=0,0 
C_C2         VOUT2 VIN2  100n  TC=0,0 
C_C3         N00309 VIN3  100n  TC=0,0 
L_L1         N00309 VOUT3  1mH  

**** RESUMING sim1.cir ****
.END

**** 10/29/24 23:13:16 ******* PSpice Lite (March 2016) ******* ID# 10813 ****

 ** Profile: "SCHEMATIC1-sim1"  [ C:\Users\Justin\Documents\School\2024-2025\Fall Quarter\EEC 100\OrCAD Lab Simulations\Lab 5-PSpiceF


 ****     SMALL SIGNAL BIAS SOLUTION       TEMPERATURE =   27.000 DEG C


******************************************************************************



 NODE   VOLTAGE     NODE   VOLTAGE     NODE   VOLTAGE     NODE   VOLTAGE


(  VIN)    0.0000  ( VIN2)    0.0000  ( VIN3)    0.0000  ( VOUT)    0.0000      

(VOUT2)    0.0000  (VOUT3)    0.0000  (N00309)    0.0000 




    VOLTAGE SOURCE CURRENTS
    NAME         CURRENT

    V_V1         0.000E+00
    V_V2         0.000E+00
    V_V3         0.000E+00

    TOTAL POWER DISSIPATION   0.00E+00  WATTS



          JOB CONCLUDED

**** 10/29/24 23:13:16 ******* PSpice Lite (March 2016) ******* ID# 10813 ****

 ** Profile: "SCHEMATIC1-sim1"  [ C:\Users\Justin\Documents\School\2024-2025\Fall Quarter\EEC 100\OrCAD Lab Simulations\Lab 5-PSpiceF


 ****     JOB STATISTICS SUMMARY


******************************************************************************



  Total job time (using Solver 1)   =         .02
