
**** 11/14/24 02:18:30 ******* PSpice Lite (March 2016) ******* ID# 10813 ****

 ** Profile: "SCHEMATIC1-sim1"  [ C:\Users\Justin\Documents\School\2024-2025\Fall Quarter\EEC 100\OrCAD Lab Simulations\Lab 6\lab 7 f


 ****     CIRCUIT DESCRIPTION


******************************************************************************




** Creating circuit file "sim1.cir" 
** WARNING: THIS AUTOMATICALLY GENERATED FILE MAY BE OVERWRITTEN BY SUBSEQUENT SIMULATIONS

*Libraries: 
* Profile Libraries :
* Local Libraries :
* From [PSPICE NETLIST] section of C:\Users\Justin\AppData\Roaming\SPB_Data\cdssetup\OrCAD_PSpice\17.2.0\PSpice.ini file:
.lib "nomd.lib" 

*Analysis directives: 
.AC DEC 100 1 10000
.OPTIONS ADVCONV
.PROBE64 V(alias(*)) I(alias(*)) W(alias(*)) D(alias(*)) NOISE(alias(*)) 
.INC "..\SCHEMATIC1.net" 



**** INCLUDING SCHEMATIC1.net ****
* source LAB 7 FOURIER ANALYSIS
R_R1         VIN N00175  5.6k TC=0,0 
R_R2         N00175 VOUT  5.6k TC=0,0 
R_R3         0 N00207  5.6k TC=0,0 
C_C1         VIN N00207  0.1u  TC=0,0 
E_U1         VOUT 0 VALUE {LIMIT(V(N00207,N00175)*1E6,-15V,+15V)}
V_V1         VIN 0 DC 0Vdc AC 1Vac 0

**** RESUMING sim1.cir ****
.END

INFO(ORPSIM-16573): AC analysis does not support expression evaluation at each frequency. ABM devices with non-linear operations will be evaluated only at bias point.

**** 11/14/24 02:18:30 ******* PSpice Lite (March 2016) ******* ID# 10813 ****

 ** Profile: "SCHEMATIC1-sim1"  [ C:\Users\Justin\Documents\School\2024-2025\Fall Quarter\EEC 100\OrCAD Lab Simulations\Lab 6\lab 7 f


 ****     SMALL SIGNAL BIAS SOLUTION       TEMPERATURE =   27.000 DEG C


******************************************************************************



 NODE   VOLTAGE     NODE   VOLTAGE     NODE   VOLTAGE     NODE   VOLTAGE


(  VIN)    0.0000  ( VOUT)    0.0000  (N00175)    0.0000 (N00207)    0.0000 




    VOLTAGE SOURCE CURRENTS
    NAME         CURRENT

    V_V1         0.000E+00

    TOTAL POWER DISSIPATION   0.00E+00  WATTS



          JOB CONCLUDED

**** 11/14/24 02:18:30 ******* PSpice Lite (March 2016) ******* ID# 10813 ****

 ** Profile: "SCHEMATIC1-sim1"  [ C:\Users\Justin\Documents\School\2024-2025\Fall Quarter\EEC 100\OrCAD Lab Simulations\Lab 6\lab 7 f


 ****     JOB STATISTICS SUMMARY


******************************************************************************



  Total job time (using Solver 1)   =         .02
