
**** 10/10/24 08:21:18 ******* PSpice Lite (March 2016) ******* ID# 10813 ****

 ** Profile: "SCHEMATIC1-sim5"  [ C:\Users\jhsu2\OneDrive\Documents\UC Davis\2024-2025\Fall Quarter\EEC 100\Lab 2\Lab 2 non-inverting


 ****     CIRCUIT DESCRIPTION


******************************************************************************




** Creating circuit file "sim5.cir" 
** WARNING: THIS AUTOMATICALLY GENERATED FILE MAY BE OVERWRITTEN BY SUBSEQUENT SIMULATIONS

*Libraries: 
* Profile Libraries :
* Local Libraries :
* From [PSPICE NETLIST] section of C:\Users\jhsu2\AppData\Roaming\SPB_Data\cdssetup\OrCAD_PSpice\17.2.0\PSpice.ini file:
.lib "nomd.lib" 

*Analysis directives: 
.TRAN  0 100ms 0 100u 
.OPTIONS ADVCONV
.PROBE64 V(alias(*)) I(alias(*)) W(alias(*)) D(alias(*)) NOISE(alias(*)) 
.INC "..\SCHEMATIC1.net" 



**** INCLUDING SCHEMATIC1.net ****
* source LAB 2 NON-INVERTING AMPLIFIER
E_U1         VO 0 VALUE {LIMIT(V(N00754,N00761)*1E6,-15V,+15V)}
V_V1         N00754 0  
+SIN 0 200mV 100 0 0 0
X_R1         N00773 N00761 VO POT PARAMS: SET=1 VALUE=10k
R_R2         0 N00773  1.5k TC=0,0 

**** RESUMING sim5.cir ****
.END

**** 10/10/24 08:21:18 ******* PSpice Lite (March 2016) ******* ID# 10813 ****

 ** Profile: "SCHEMATIC1-sim5"  [ C:\Users\jhsu2\OneDrive\Documents\UC Davis\2024-2025\Fall Quarter\EEC 100\Lab 2\Lab 2 non-inverting


 ****     INITIAL TRANSIENT SOLUTION       TEMPERATURE =   27.000 DEG C


******************************************************************************



 NODE   VOLTAGE     NODE   VOLTAGE     NODE   VOLTAGE     NODE   VOLTAGE


(   VO)    0.0000  (N00754)    0.0000 (N00761)    0.0000 (N00773)    0.0000 




    VOLTAGE SOURCE CURRENTS
    NAME         CURRENT

    V_V1         0.000E+00

    TOTAL POWER DISSIPATION   0.00E+00  WATTS



          JOB CONCLUDED

**** 10/10/24 08:21:18 ******* PSpice Lite (March 2016) ******* ID# 10813 ****

 ** Profile: "SCHEMATIC1-sim5"  [ C:\Users\jhsu2\OneDrive\Documents\UC Davis\2024-2025\Fall Quarter\EEC 100\Lab 2\Lab 2 non-inverting


 ****     JOB STATISTICS SUMMARY


******************************************************************************



  Total job time (using Solver 1)   =         .06
