
**** 10/09/24 22:56:17 ******* PSpice Lite (March 2016) ******* ID# 10813 ****

 ** Profile: "SCHEMATIC1-sim2"  [ C:\Users\jhsu2\OneDrive\Documents\UC Davis\2024-2025\Fall Quarter\EEC 100\Lab 2\Lab 2 non-inverting


 ****     CIRCUIT DESCRIPTION


******************************************************************************




** Creating circuit file "sim2.cir" 
** WARNING: THIS AUTOMATICALLY GENERATED FILE MAY BE OVERWRITTEN BY SUBSEQUENT SIMULATIONS

*Libraries: 
* Profile Libraries :
* Local Libraries :
* From [PSPICE NETLIST] section of C:\Users\jhsu2\AppData\Roaming\SPB_Data\cdssetup\OrCAD_PSpice\17.2.0\PSpice.ini file:
.lib "nomd.lib" 

*Analysis directives: 
.TRAN  0 100ms 0 100u 
.OPTIONS ADVCONV
.PROBE64 V(alias(*)) I(alias(*)) W(alias(*)) D(alias(*)) NOISE(alias(*)) 
.INC "..\SCHEMATIC1.net" 



**** INCLUDING SCHEMATIC1.net ****
* source LAB 2 NON-INVERTING AMPLIFIER
E_U1         VO 0 VALUE {LIMIT(V(N00156,N00163)*1E6,-15V,+15V)}
V_V1         N00156 0  AC 1
+SIN 0 200mV 100Hz 0 0 0
X_R1         N00185 N00163 VO POT PARAMS: SET=0 VALUE=10k
R_R2         0 N00185  1.5k TC=0,0 

**** RESUMING sim2.cir ****
.END

**** 10/09/24 22:56:17 ******* PSpice Lite (March 2016) ******* ID# 10813 ****

 ** Profile: "SCHEMATIC1-sim2"  [ C:\Users\jhsu2\OneDrive\Documents\UC Davis\2024-2025\Fall Quarter\EEC 100\Lab 2\Lab 2 non-inverting


 ****     INITIAL TRANSIENT SOLUTION       TEMPERATURE =   27.000 DEG C


******************************************************************************



 NODE   VOLTAGE     NODE   VOLTAGE     NODE   VOLTAGE     NODE   VOLTAGE


(   VO)    0.0000  (N00156)    0.0000 (N00163)    0.0000 (N00185)    0.0000 




    VOLTAGE SOURCE CURRENTS
    NAME         CURRENT

    V_V1         0.000E+00

    TOTAL POWER DISSIPATION   0.00E+00  WATTS



          JOB CONCLUDED

**** 10/09/24 22:56:17 ******* PSpice Lite (March 2016) ******* ID# 10813 ****

 ** Profile: "SCHEMATIC1-sim2"  [ C:\Users\jhsu2\OneDrive\Documents\UC Davis\2024-2025\Fall Quarter\EEC 100\Lab 2\Lab 2 non-inverting


 ****     JOB STATISTICS SUMMARY


******************************************************************************



  Total job time (using Solver 1)   =         .03
